/*--------------------------------*- C++ -*----------------------------------*\
| =========                 |                                                 |
| \\      /  F ield         | OpenFOAM: The Open Source CFD Toolbox           |
|  \\    /   O peration     | Version:  5                                     |
|   \\  /    A nd           | Web:      www.OpenFOAM.org                      |
|    \\/     M anipulation  |                                                 |
\*---------------------------------------------------------------------------*/
FoamFile
{
    version     2.0;
    format      ascii;
    class       dictionary;
    object      blockMeshDict;
}
// * * * * * * * * * * * * * * * * * * * * * * * * * * * * * * * * * * * * * //

convertToMeters 1;

xmin 0;
xmax 9;
ymin -110;
ymax -100;
zmin 0;
zmax 1;
vertices
(
    ($xmin $ymin $zmin)
    ($xmax $ymin $zmin)
    ($xmax $ymax $zmin)
    ($xmin $ymax $zmin)
    ($xmin $ymin $zmax)
    ($xmax $ymin $zmax)
    ($xmax $ymax $zmax)
    ($xmin $ymax $zmax)
);

blocks
(
    hex (0 1 2 3 4 5 6 7) (90 100 1) simpleGrading (1 1 1)
);

edges
(
);

boundary
(
    floor
    {
        type wall;
        faces
        (
            (1 5 4 0)
        );
    }

    ceiling
    {
        type wall;
        faces
        (
            (3 7 6 2)
        );
    }

    sideWalls
    {
        type wall;
        faces
        (
            (0 4 7 3)
            (2 6 5 1)
        );
    }

    frontAndBack
    {
        type empty;
        faces
        (
            (0 3 2 1)
            (4 5 6 7)
        );
    }
);

mergePatchPairs
(
);

// ************************************************************************* //
